!!>>>>>>>>>>>>>>>>>>>>>>>>>>>>>>>>>>>>>>>>>>>>>>>>>>>>>>>>>>>>>>>>>>>>>>
!! NEMO/OPA  :  1 - run manager      (namrun)
!! namelists    2 - Domain           (namcfg, namzgr, namzgr_sco, namdom, namtsd)
!!              3 - Surface boundary (namsbc, namsbc_ana, namsbc_flx, namsbc_clio, namsbc_core, namsbc_sas
!!                                    namsbc_cpl, namtra_qsr, namsbc_rnf,
!!                                    namsbc_apr, namsbc_ssr, namsbc_alb)
!!              4 - lateral boundary (namlbc, namcla, namagrif, nambdy, nambdy_tide)
!!              5 - bottom  boundary (nambfr, nambbc, nambbl)
!!              6 - Tracer           (nameos, namtra_adv, namtra_ldf, namtra_dmp)
!!              7 - dynamics         (namdyn_adv, namdyn_vor, namdyn_hpg, namdyn_spg, namdyn_ldf)
!!              8 - Verical physics  (namzdf, namzdf_ric, namzdf_tke, namzdf_kpp, namzdf_ddm, namzdf_tmx, namzdf_tmx_new)
!!              9 - diagnostics      (namnc4, namtrd, namspr, namflo, namhsb, namsto)
!!             10 - miscellaneous    (namsol, nammpp, namctl)
!!             11 - Obs & Assim      (namobs, nam_asminc)
!!>>>>>>>>>>>>>>>>>>>>>>>>>>>>>>>>>>>>>>>>>>>>>>>>>>>>>>>>>>>>>>>>>>>>>>

!!======================================================================
!!                   ***  Run management namelists  ***
!!======================================================================
!!   namrun       parameters of the run
!!======================================================================
!
!-----------------------------------------------------------------------
&namrun        !   parameters of the run
!-----------------------------------------------------------------------
   nn_no       =       0   !  job number (no more used...)
   cn_exp      =  'aj_ts_melt_off_dynlin_014'  !  experience name
   nn_it000    =       1   !  first time step
   nn_itend    =    105120   !  last  time step (std 5475)
/
!
!!======================================================================
!!                      ***  Domain namelists  ***
!!======================================================================
!!   namcfg       parameters of the configuration
!!   namzgr       vertical coordinate
!!   namzgr_sco   s-coordinate or hybrid z-s-coordinate
!!   namdom       space and time domain (bathymetry, mesh, timestep)
!!   namtsd       data: temperature & salinity
!!======================================================================
!
!-----------------------------------------------------------------------
&namcfg     !   parameters of the configuration
!-----------------------------------------------------------------------
   cp_cfg      =  'miso_typ'            !  name of the configuration
   cp_cfz      =  ''            !  name of the zoom of configuration
   jp_cfg      =       1               !  resolution of the configuration
   jpidta      =      257               !  1st lateral dimension ( >= jpi )
   jpjdta      =      385               !  2nd    "         "    ( >= jpj )
   jpkdta      =      75               !  number of levels      ( >= jpk )
   jpiglo      =      257               !  1st dimension of global domain --> i =jpidta
   jpjglo      =      385               !  2nd    -                  -    --> j =jpjdta
   jpizoom     =       1               !  left bottom (i,j) indices of the zoom
   jpjzoom     =       1               !  in data domain indices
   jperio      =       1               !  lateral cond. type (between 0 and 6)
                                       !  = 0 closed                 ;   = 1 cyclic East-West
                                       !  = 2 equatorial symmetric   ;   = 3 North fold T-point pivot
                                       !  = 4 cyclic East-West AND North fold T-point pivot
                                       !  = 5 North fold F-point pivot
                                       !  = 6 cyclic East-West AND North fold F-point pivot
   ln_use_jattr = .false.              !  use (T) the file attribute: open_ocean_jstart, if present
                                       !  in netcdf input files, as the start j-row for reading
/
!-----------------------------------------------------------------------
&namzgr        !   vertical coordinate
!-----------------------------------------------------------------------
   ln_zco      = .false.   !  z-coordinate - full    steps   (T/F)      ("key_zco" may also be defined)
   ln_zps      = .true.    !  z-coordinate - partial steps   (T/F)
   ln_sco      = .false.   !  s- or hybrid z-s-coordinate    (T/F)
   ln_isfcav   = .false.   !  ice shelf cavity               (T/F)
/
!-----------------------------------------------------------------------
&namzgr_sco    !   s-coordinate or hybrid z-s-coordinate
!-----------------------------------------------------------------------
   ln_s_sh94   = .true.    !  Song & Haidvogel 1994 hybrid S-sigma   (T)|
   ln_s_sf12   = .false.   !  Siddorn & Furner 2012 hybrid S-z-sigma (T)| if both are false the NEMO tanh stretching is applied
   ln_sigcrit  = .false.   !  use sigma coordinates below critical depth (T) or Z coordinates (F) for Siddorn & Furner stretch
                           !  stretching coefficients for all functions
   rn_sbot_min =   10.0    !  minimum depth of s-bottom surface (>0) (m)
   rn_sbot_max = 7000.0    !  maximum depth of s-bottom surface (= ocean depth) (>0) (m)
   rn_hc       =  150.0    !  critical depth for transition to stretched coordinates
                        !!!!!!!  Envelop bathymetry
   rn_rmax     =    0.3    !  maximum cut-off r-value allowed (0<r_max<1)
                        !!!!!!!  SH94 stretching coefficients  (ln_s_sh94 = .true.)
   rn_theta    =    6.0    !  surface control parameter (0<=theta<=20)
   rn_bb       =    0.8    !  stretching with SH94 s-sigma
                        !!!!!!!  SF12 stretching coefficient  (ln_s_sf12 = .true.)
   rn_alpha    =    4.4    !  stretching with SF12 s-sigma
   rn_efold    =    0.0    !  efold length scale for transition to stretched coord
   rn_zs       =    1.0    !  depth of surface grid box
                           !  bottom cell depth (Zb) is a linear function of water depth Zb = H*a + b
   rn_zb_a     =    0.024  !  bathymetry scaling factor for calculating Zb
   rn_zb_b     =   -0.2    !  offset for calculating Zb
                        !!!!!!!! Other stretching (not SH94 or SF12) [also uses rn_theta above]
   rn_thetb    =    1.0    !  bottom control parameter  (0<=thetb<= 1)
/
!-----------------------------------------------------------------------
&namzgr_isf    !   isf cavity geometry definition
!-----------------------------------------------------------------------
   rn_isfdep_min    = 10.         ! minimum isf draft tickness (if lower, isf draft set to this value)
   rn_glhw_min      = 1.0         ! minimum water column thickness to define the grounding line
   rn_isfhw_min     = 1.0          ! minimum water column thickness in the cavity once the grounding line defined.
   ln_isfchannel    = .false.     ! remove channel (based on 2d mask build from isfdraft-bathy)
   ln_isfconnect    = .false.     ! force connection under the ice shelf (based on 2d mask build from isfdraft-bathy)
   nn_kisfmax       = 999         ! limiter in level on the previous condition. (if change larger than this number, get back to value before we enforce the connection)
   rn_zisfmax       = 7000.       ! limiter in m     on the previous condition. (if change larger than this number, get back to value before we enforce the connection)
   ln_isfcheminey   = .false.     ! close cheminey
   ln_isfsubgl      = .false.      ! remove subglacial lake created by the remapping process
   rn_isfsubgllon   =    0.0      !  longitude of the seed to determine the open ocean
   rn_isfsubgllat   =    0.0      !  latitude  of the seed to determine the open ocean
/
!-----------------------------------------------------------------------
&namdom        !   space and time domain (bathymetry, mesh, timestep)
!-----------------------------------------------------------------------
   nn_bathy    =    1      !  compute (=0) or read (=1) the bathymetry file
   rn_bathy    =    0.     !  value of the bathymetry. if (=0) bottom flat at jpkm1
   nn_closea   =    0      !  remove (=0) or keep (=1) closed seas and lakes (ORCA)
   nn_msh      =    1      !  create (=1) a mesh file or not (=0)
   rn_hmin     =   -3.     !  min depth of the ocean (>0) or min number of ocean level (<0)
   rn_e3zps_min=   20.     !  partial step thickness is set larger than the minimum of
   rn_e3zps_rat=    0.1    !  rn_e3zps_min and rn_e3zps_rat*e3t, with 0<rn_e3zps_rat<1
                           !
   jphgr_msh   =       3               !  type of horizontal mesh
                                       !  = 0 curvilinear coordinate on the sphere read in coordinate.nc
                                       !  = 1 geographical mesh on the sphere with regular grid-spacing
                                       !  = 2 f-plane with regular grid-spacing
                                       !  = 3 beta-plane with regular grid-spacing
                                       !  = 4 Mercator grid with T/U point at the equator
   ppglam0     =       0.0             !  longitude of first raw and column T-point (jphgr_msh = 1)
   ppgphi0     =     -75.0             ! latitude  of first raw and column T-point (jphgr_msh = 1)
   ppe1_deg    =       999999.0             !  zonal      grid-spacing (degrees)
   ppe2_deg    =       999999.0             !  meridional grid-spacing (degrees)
   ppe1_m      =    7857.74202349             !  zonal      grid-spacing (degrees)
   ppe2_m      =    7857.74202349             !  meridional grid-spacing (degrees)
   ppsur       =    -3958.951371276829  !  ORCA r4, r2 and r05 coefficients
   ppa0        =      103.9530096  ! (default coefficients)
   ppa1        =      2.415951269  !
   ppkth       =       15.3510137  !
   ppacr       =        7.0            !
   ppdzmin     =       0             !  Minimum vertical spacing
   pphmax      =     0      !  Maximum depth
   !pphmax      =     5000              !  Maximum depth
   ldbletanh   =    .true.             !  Use/do not use double tanf function for vertical coordinates
   ppa2        =      999999.0 !  Double tanh function parameters
   ppkth2      =       48.02989372 !
   ppacr2      =       13.0 !
    ppa2   = 100.7609285
/
!-----------------------------------------------------------------------
&namsplit      !   time splitting parameters                            ("key_dynspg_ts")
!-----------------------------------------------------------------------
   ln_bt_fw      =    .TRUE.           !  Forward integration of barotropic equations
   ln_bt_av      =    .TRUE.           !  Time filtering of barotropic variables
   ln_bt_nn_auto =    .TRUE.           !  Set nn_baro automatically to be just below
                                       !  a user defined maximum courant number (rn_bt_cmax)
   nn_baro       =    30               !  Number of iterations of barotropic mode
                                       !  during rn_rdt seconds. Only used if ln_bt_nn_auto=F
   rn_bt_cmax    =    0.8              !  Maximum courant number allowed if ln_bt_nn_auto=T
   nn_bt_flt     =    1                !  Time filter choice
                                       !  = 0 None
                                       !  = 1 Boxcar over   nn_baro barotropic steps
                                       !  = 2 Boxcar over 2*nn_baro     "        "
/
!-----------------------------------------------------------------------
&namcrs        !   Grid coarsening for dynamics output and/or
               !   passive tracer coarsened online simulations
!-----------------------------------------------------------------------
   nn_factx    = 3         !  Reduction factor of x-direction
   nn_facty    = 3         !  Reduction factor of y-direction
   nn_binref   = 0         !  Bin centering preference: NORTH or EQUAT
                           !  0, coarse grid is binned with preferential treatment of the north fold
                           !  1, coarse grid is binned with centering at the equator
                           !    Symmetry with nn_facty being odd-numbered. Asymmetry with even-numbered nn_facty.
   nn_msh_crs  = 1         !  create (=1) a mesh file or not (=0)
   nn_crs_kz   = 0         ! 0, MEAN of volume boxes
                           ! 1, MAX of boxes
                           ! 2, MIN of boxes
   ln_crs_wn   = .true.    ! wn coarsened (T) or computed using horizontal divergence ( F )
/
!-----------------------------------------------------------------------
&namc1d        !   1D configuration options                             ("key_c1d")
!-----------------------------------------------------------------------
   rn_lat1d    =      50   !  Column latitude (default at PAPA station)
   rn_lon1d    =    -145   !  Column longitude (default at PAPA station)
   ln_c1d_locpt=  .true.   ! Localization of 1D config in a grid (T) or independant point (F)
/
!-----------------------------------------------------------------------
&namtsd    !   data : Temperature  & Salinity
!-----------------------------------------------------------------------
!-----------------------------------------------------------------------
!          !  file name                            ! frequency (hours) ! variable  ! time interp. !  clim  ! 'yearly'/ ! weights  ! rotation ! land/sea mask !
!          !                                       !  (if <0  months)  !   name    !   (logical)  !  (T/F) ! 'monthly' ! filename ! pairing  ! filename      !
   sn_tem  = 'TS_init',         -1        ,'Tinit' ,    .true.    , .true. , 'yearly'   , ''       ,   ''    ,    ''
   sn_sal  = 'TS_init'             ,         -1        ,'Sinit' ,    .true.    , .true. , 'yearly'   , ''       ,   ''    ,    ''
   !
   cn_dir        = './'     !  root directory for the location of the runoff files
   ln_tsd_init   = .true.   !  Initialisation of ocean T & S with T &S input data (T) or not (F)
   ln_tsd_tradmp = .false.   !  damping of ocean T & S toward T &S input data (T) or not (F)
/
!!======================================================================
!!            ***  Surface Boundary Condition namelists  ***
!!======================================================================
!!   namsbc          surface boundary condition
!!   namsbc_ana      analytical         formulation
!!   namsbc_flx      flux               formulation
!!   namsbc_clio     CLIO bulk formulae formulation
!!   namsbc_core     CORE bulk formulae formulation
!!   namsbc_mfs      MFS  bulk formulae formulation
!!   namsbc_cpl      CouPLed            formulation                     ("key_oasis3")
!!   namsbc_sas      StAndalone Surface module
!!   namtra_qsr      penetrative solar radiation
!!   namsbc_rnf      river runoffs
!!   namsbc_isf      ice shelf melting/freezing
!!   namsbc_apr      Atmospheric Pressure
!!   namsbc_ssr      sea surface restoring term (for T and/or S)
!!   namsbc_alb      albedo parameters
!!======================================================================
!
!-----------------------------------------------------------------------
&namsbc        !   Surface Boundary Condition (surface module)
!-----------------------------------------------------------------------
   nn_fsbc     = 6         !  frequency of surface boundary condition computation
                           !     (also = the frequency of sea-ice model call)
   ln_ana      = .true.   !  analytical formulation                    (T => fill namsbc_ana )
   ln_flx      = .false.   !  flux formulation                          (T => fill namsbc_flx )
   ln_blk_clio = .false.   !  CLIO bulk formulation                     (T => fill namsbc_clio)
   ln_blk_core = .false.    !  CORE bulk formulation                     (T => fill namsbc_core)
   ln_blk_mfs  = .false.   !  MFS bulk formulation                      (T => fill namsbc_mfs )
   ln_cpl      = .false.   !  atmosphere coupled   formulation          ( requires key_oasis3 )
   ln_mixcpl   = .false.   !  forced-coupled mixed formulation          ( requires key_oasis3 )
   nn_components = 0       !  configuration of the opa-sas OASIS coupling
                           !  =0 no opa-sas OASIS coupling: default single executable configuration
                           !  =1 opa-sas OASIS coupling: multi executable configuration, OPA component
                           !  =2 opa-sas OASIS coupling: multi executable configuration, SAS component 
   ln_apr_dyn  = .false.   !  Patm gradient added in ocean & ice Eqs.   (T => fill namsbc_apr )
   nn_ice      = 0         !  =0 no ice boundary condition   ,
                           !  =1 use observed ice-cover      ,
                           !  =2 ice-model used                         ("key_lim3" or "key_lim2")
   nn_ice_embd = 0         !  =0 levitating ice (no mass exchange, concentration/dilution effect)
                           !  =1 levitating ice with mass and salt exchange but no presure effect
                           !  =2 embedded sea-ice (full salt and mass exchanges and pressure)
   ln_dm2dc    = .false.   !  daily mean to diurnal cycle on short wave
   ln_rnf      = .false.    !  runoffs                                   (T   => fill namsbc_rnf)
   nn_isf      = 1         !  ice shelf melting/freezing                (/=0 => fill namsbc_isf)
                           !  0 =no isf                  1 = presence of ISF
                           !  2 = bg03 parametrisation   3 = rnf file for isf
                           !  4 = ISF fwf specified
                           !  option 1 and 4 need ln_isfcav = .true. (domzgr)
   ln_ssr      = .false.    !  Sea Surface Restoring on T and/or S       (T => fill namsbc_ssr)
   nn_fwb      = 1         !  FreshWater Budget: =0 unchecked
                           !     =1 global mean of e-p-r set to zero at each time step
                           !     =2 annual global mean of e-p-r set to zero
   ln_wave = .false.       !  Activate coupling with wave (either Stokes Drift or Drag coefficient, or both)  (T => fill namsbc_wave)
   ln_cdgw = .false.       !  Neutral drag coefficient read from wave model (T => fill namsbc_wave)
   ln_sdw  = .false.       !  Computation of 3D stokes drift                (T => fill namsbc_wave)
   nn_lsm  = 0             !  =0 land/sea mask for input fields is not applied (keep empty land/sea mask filename field) ,
                           !  =1:n number of iterations of land/sea mask application for input fields (fill land/sea mask filename field)
   nn_limflx = -1          !  LIM3 Multi-category heat flux formulation (use -1 if LIM3 is not used)
                           !  =-1  Use per-category fluxes, bypass redistributor, forced mode only, not yet implemented coupled
                           !  = 0  Average per-category fluxes (forced and coupled mode)
                           !  = 1  Average and redistribute per-category fluxes, forced mode only, not yet implemented coupled
                           !  = 2  Redistribute a single flux over categories (coupled mode only)
/
!-----------------------------------------------------------------------
&namsbc_ana    !   analytical surface boundary condition
!-----------------------------------------------------------------------
   nn_tau000   =   0       !  gently increase the stress over the first ntau_rst time-steps
   rn_utau0    =   0.0     !  uniform value for the i-stress
   rn_vtau0    =   0.e0    !  uniform value for the j-stress
   rn_qns0     =   0.e0    !  uniform value for the total heat flux
   rn_qsr0     =   0.e0    !  uniform value for the solar radiation
   rn_emp0     =   0.e0    !  uniform value for the freswater budget (E-P)
/
!-----------------------------------------------------------------------
&namsbc_flx    !   surface boundary condition : flux formulation
!-----------------------------------------------------------------------
!              !  file name  ! frequency (hours) ! variable  ! time interp. !  clim  ! 'yearly'/ ! weights  ! rotation ! land/sea mask !
!              !             !  (if <0  months)  !   name    !   (logical)  !  (T/F) ! 'monthly' ! filename ! pairing  ! filename      !
   sn_utau     = 'utau'      ,        24         , 'utau'    , .false.      , .false., 'yearly'  , ''       , ''       , ''
   sn_vtau     = 'vtau'      ,        24         , 'vtau'    , .false.      , .false., 'yearly'  , ''       , ''       , ''
   sn_qtot     = 'qtot'      ,        24         , 'qtot'    , .false.      , .false., 'yearly'  , ''       , ''       , ''
   sn_qsr      = 'qsr'       ,        24         , 'qsr'     , .false.      , .false., 'yearly'  , ''       , ''       , ''
   sn_emp      = 'emp'       ,        24         , 'emp'     , .false.      , .false., 'yearly'  , ''       , ''       , ''

   cn_dir      = './'      !  root directory for the location of the flux files
/
!-----------------------------------------------------------------------
&namsbc_clio   !   namsbc_clio  CLIO bulk formulae
!-----------------------------------------------------------------------
!              !  file name  ! frequency (hours) ! variable  ! time interp. !  clim  ! 'yearly'/ ! weights  ! rotation ! land/sea mask !
!              !             !  (if <0  months)  !   name    !   (logical)  !  (T/F) ! 'monthly' ! filename ! pairing  ! filename      !
   sn_utau     = 'taux_1m'   ,       -1          , 'sozotaux',   .true.     , .true. , 'yearly'  , ''       , ''       , ''
   sn_vtau     = 'tauy_1m'   ,       -1          , 'sometauy',   .true.     , .true. , 'yearly'  , ''       , ''       , ''
   sn_wndm     = 'flx'       ,       -1          , 'socliowi',   .true.     , .true. , 'yearly'  , ''       , ''       , ''
   sn_tair     = 'flx'       ,       -1          , 'socliot2',   .true.     , .true. , 'yearly'  , ''       , ''       , ''
   sn_humi     = 'flx'       ,       -1          , 'socliohu',   .true.     , .true. , 'yearly'  , ''       , ''       , ''
   sn_ccov     = 'flx'       ,       -1          , 'socliocl',   .false.    , .true. , 'yearly'  , ''       , ''       , ''
   sn_prec     = 'flx'       ,       -1          , 'socliopl',   .false.    , .true. , 'yearly'  , ''       , ''       , ''

   cn_dir      = './'      !  root directory for the location of the bulk files are
/
!-----------------------------------------------------------------------
&namsbc_core   !   namsbc_core  CORE bulk formulae
!-----------------------------------------------------------------------
!              !  file name                    ! frequency (hours) ! variable  ! time interp. !  clim  ! 'yearly'/ ! weights                               ! rotation ! land/sea mask !
!              !                               !  (if <0  months)  !   name    !   (logical)  !  (T/F) ! 'monthly' ! filename                              ! pairing  ! filename      !
   sn_wndi     = 'u_10.15JUNE2009_fill'        ,         6         , 'U_10_MOD',   .false.    , .true. , 'yearly'  , 'weights_core_orca2_bicubic_noc.nc'   , 'Uwnd'   , ''
   sn_wndj     = 'v_10.15JUNE2009_fill'        ,         6         , 'V_10_MOD',   .false.    , .true. , 'yearly'  , 'weights_core_orca2_bicubic_noc.nc'   , 'Vwnd'   , ''
   sn_qsr      = 'ncar_rad.15JUNE2009_fill'    ,        24         , 'SWDN_MOD',   .false.    , .true. , 'yearly'  , 'weights_core_orca2_bilinear_noc.nc'  , ''       , ''
   sn_qlw      = 'ncar_rad.15JUNE2009_fill'    ,        24         , 'LWDN_MOD',   .false.    , .true. , 'yearly'  , 'weights_core_orca2_bilinear_noc.nc'  , ''       , ''
   sn_tair     = 't_10.15JUNE2009_fill'        ,         6         , 'T_10_MOD',   .false.    , .true. , 'yearly'  , 'weights_core_orca2_bilinear_noc.nc'  , ''       , ''
   sn_humi     = 'q_10.15JUNE2009_fill'        ,         6         , 'Q_10_MOD',   .false.    , .true. , 'yearly'  , 'weights_core_orca2_bilinear_noc.nc'  , ''       , ''
   sn_prec     = 'ncar_precip.15JUNE2009_fill' ,        -1         , 'PRC_MOD1',   .false.    , .true. , 'yearly'  , 'weights_core_orca2_bilinear_noc.nc'  , ''       , ''
   sn_snow     = 'ncar_precip.15JUNE2009_fill' ,        -1         , 'SNOW'    ,   .false.    , .true. , 'yearly'  , 'weights_core_orca2_bilinear_noc.nc'  , ''       , ''
   sn_tdif     = 'taudif_core'                 ,        24         , 'taudif'  ,   .false.    , .true. , 'yearly'  , 'weights_core_orca2_bilinear_noc.nc'  , ''       , ''

   cn_dir      = './'      !  root directory for the location of the bulk files
   ln_taudif   = .false.   !  HF tau contribution: use "mean of stress module - module of the mean stress" data
   rn_zqt      = 10.        !  Air temperature and humidity reference height (m)
   rn_zu       = 10.        !  Wind vector reference height (m)
   rn_pfac     = 1.        !  multiplicative factor for precipitation (total & snow)
   rn_efac     = 1.        !  multiplicative factor for evaporation (0. or 1.)
   rn_vfac     = 0.        !  multiplicative factor for ocean/ice velocity
                           !  in the calculation of the wind stress (0.=absolute winds or 1.=relative winds)
/
!-----------------------------------------------------------------------
&namsbc_mfs   !   namsbc_mfs  MFS bulk formulae
!-----------------------------------------------------------------------
!              !  file name  ! frequency (hours) ! variable  ! time interp. !  clim  ! 'yearly'/ ! weights     ! rotation ! land/sea mask !
!              !             !  (if <0  months)  !   name    !   (logical)  !  (T/F) ! 'monthly' ! filename    ! pairing  ! filename      !
   sn_wndi     =   'ecmwf'   ,        6          , 'u10'     ,    .true.    , .false. , 'daily'  ,'bicubic.nc' , ''       , ''
   sn_wndj     =   'ecmwf'   ,        6          , 'v10'     ,    .true.    , .false. , 'daily'  ,'bicubic.nc' , ''       , ''
   sn_clc      =   'ecmwf'   ,        6          , 'clc'     ,    .true.    , .false. , 'daily'  ,'bilinear.nc', ''       , ''
   sn_msl      =   'ecmwf'   ,        6          , 'msl'     ,    .true.    , .false. , 'daily'  ,'bicubic.nc' , ''       , ''
   sn_tair     =   'ecmwf'   ,        6          , 't2'      ,    .true.    , .false. , 'daily'  ,'bicubic.nc' , ''       , ''
   sn_rhm      =   'ecmwf'   ,        6          , 'rh'      ,    .true.    , .false. , 'daily'  ,'bilinear.nc', ''       , ''
   sn_prec     =   'ecmwf'   ,        6          , 'precip'  ,    .true.    , .true.  , 'daily'  ,'bicubic.nc' , ''       , ''

   cn_dir      = './ECMWF/'      !  root directory for the location of the bulk files
/
!-----------------------------------------------------------------------
&namsbc_cpl    !   coupled ocean/atmosphere model                       ("key_oasis3")
!-----------------------------------------------------------------------
!                    !     description       !  multiple  !    vector   !      vector          ! vector !
!                    !                       ! categories !  reference  !    orientation       ! grids  !
! send
   sn_snd_temp   =       'weighted oce and ice' ,    'no'    ,     ''      ,         ''           ,   ''
   sn_snd_alb    =       'weighted ice'         ,    'no'    ,     ''      ,         ''           ,   ''
   sn_snd_thick  =       'none'                 ,    'no'   ,     ''      ,         ''           ,   ''
   sn_snd_crt    =       'none'                 ,    'no'    , 'spherical' , 'eastward-northward' ,  'T'
   sn_snd_co2    =       'coupled'              ,    'no'    ,     ''      ,         ''           ,   ''
   sn_snd_bio_co2 =      'medusa'               ,    'no'    ,     ''      ,         ''           ,   ''
   sn_snd_bio_dms =      'medusa'               ,    'no'    ,     ''      ,         ''           ,   ''
   sn_snd_bio_chloro =   'medusa'               ,    'no'    ,     ''      ,         ''           ,   ''
   sn_snd_cond   =       'weighted ice'         ,    'no'    ,     ''      ,         ''           ,   ''
   sn_snd_mpnd   =       'ice only'             ,    'no'    ,     ''      ,         ''           ,   ''
   sn_snd_sstfrz =       'coupled'              ,    'no'    ,     ''      ,         ''           ,   ''
   sn_snd_thick1 =       'ice and snow'         ,    'no'    ,     ''      ,         ''           ,   ''
! receive
   sn_rcv_w10m   =       'none'                 ,    'no'    ,     ''      ,         ''          ,   ''
   sn_rcv_taumod =       'coupled'              ,    'no'    ,     ''      ,         ''          ,   ''
   sn_rcv_tau    =       'oce only'             ,    'no'    , 'cartesian' , 'eastward-northward',  'U,V'
   sn_rcv_dqnsdt =       'coupled'              ,    'no'    ,     ''      ,         ''          ,   ''
   sn_rcv_qsr    =       'oce and ice'          ,    'no'    ,     ''      ,         ''          ,   ''
   sn_rcv_qns    =       'oce and ice'          ,    'no'    ,     ''      ,         ''          ,   ''
   sn_rcv_emp    =       'conservative'         ,    'no'    ,     ''      ,         ''          ,   ''
   sn_rcv_rnf    =       'coupled'              ,    'no'    ,     ''      ,         ''          ,   ''
   sn_rcv_cal    =       'coupled'              ,    'no'    ,     ''      ,         ''          ,   ''
   sn_rcv_co2    =       'coupled'              ,    'no'    ,     ''      ,         ''          ,   ''
   sn_rcv_antm   =       'coupled'              ,    'no'    ,     ''      ,         ''          ,   ''
   sn_rcv_grnm   =       'coupled'              ,    'no'    ,     ''      ,         ''          ,   ''
   sn_rcv_iceflx =       'coupled'              ,    'no'    ,     ''      ,         ''          ,   ''
   sn_rcv_ts_ice =       'ice'                  ,    'no'    ,     ''      ,         ''          ,   ''